Circuit: * C:\Users\oscar.walsh\Desktop\Greenhouse Fan Driver\ComparatorSim.asc

Direct Newton iteration for .op point succeeded.
Heightened Def Con from 37.6006 to 37.6006
Heightened Def Con from 117.487 to 117.487
Heightened Def Con from 768.203 to 768.203
Heightened Def Con from 882.507 to 882.507
Heightened Def Con from 962.399 to 962.399

Date: Fri Dec 15 17:00:10 2023
Total elapsed time: 51.237 seconds.

tnom = 27
temp = 27
method = modified trap
totiter = 2106717
traniter = 2106708
tranpoints = 1052027
accept = 1051612
rejected = 420
matrix size = 99
fillins = 31
solver = Normal
Thread vector: 4.1/3.7[2] 0.7/1.5[1] 1.0/1.5[1] 0.2/1.8[1]  2592/500
Matrix Compiler1: 3.64 KB object code size  0.6/0.3/[0.2]
Matrix Compiler2: 6.99 KB object code size  0.3/0.7/[0.3]

