Circuit: * C:\Users\oscar.walsh\Desktop\Greenhouse Fan Driver\TemperatureComparatorSim.asc

Direct Newton iteration for .op point succeeded.

Date: Fri Dec 15 19:54:01 2023
Total elapsed time: 2.979 seconds.

tnom = 27
temp = 27
method = modified trap
totiter = 335202
traniter = 335193
tranpoints = 167298
accept = 166541
rejected = 757
matrix size = 97
fillins = 31
solver = Normal
Matrix Compiler1: 3.41 KB object code size  0.6/0.3/[0.2]
Matrix Compiler2: 6.83 KB object code size  0.3/0.7/[0.3]

